@<TRIPOS>MOLECULE
*****
   23    24     0     0     0
SMALL
USER_CHARGES

@<TRIPOS>ATOM
      1 N1          6.8260   -0.9964    0.0000 N.pl3     1 <0>        -0.0916
      2 C1          5.4934   -0.8790    0.0000 C.cat     1 <0>        -0.0240
      3 N2          4.9707    0.3500    0.0000 N.pl3     1 <0>         0.1688
      4 N3          4.7303   -1.9909    0.0000 N.pl3     1 <0>         0.0469
      5 C2          3.3503   -1.9569    0.0000 C.2       1 <0>        -0.0071
      6 N4          2.6096   -3.1177    0.0000 N.pl3     1 <0>        -0.0307
      7 C3          1.2767   -2.7959    0.0000 C.ar      1 <0>        -0.0762
      8 C4          0.1210   -3.5779    0.0000 C.ar      1 <0>        -0.0298
      9 C5         -1.0972   -2.8882    0.0000 C.ar      1 <0>        -0.0141
     10 C6         -1.1352   -1.4913    0.0000 C.ar      1 <0>         0.0052
     11 C7          0.0376   -0.7295    0.0000 C.ar      1 <0>         0.0226
     12 C8          1.2631   -1.4088    0.0000 C.ar      1 <0>         0.0121
     13 N5          2.5425   -0.9097    0.0000 N.2       1 <0>        -0.2312
     14 Cl1        -2.6604   -0.6868    0.0000 Cl        1 <0>        -0.0814
     15 H1          7.2731   -1.9021    0.0000 H         1 <0>         0.1308
     16 H2          7.4128   -0.1740    0.0000 H         1 <0>         0.1308
     17 H3          5.5494    1.1759    0.0000 H         1 <0>         0.2878
     18 H4          3.9589    0.4478    0.0000 H         1 <0>         0.2878
     19 H5          5.2374   -2.8675    0.0000 H         1 <0>         0.1437
     20 H6          2.9952   -4.0499    0.0000 H         1 <0>         0.1553
     21 H7          0.1579   -4.6635    0.0000 H         1 <0>         0.0643
     22 H8         -2.0250   -3.4583    0.0000 H         1 <0>         0.0638
     23 H9          0.0107    0.3545    0.0000 H         1 <0>         0.0661
@<TRIPOS>BOND
     1    1    2 1
     2    2    3 2
     3    2    4 1
     4    4    5 1
     5    6    7 1
     6    7    8 ar
     7    8    9 ar
     8    9   10 ar
     9   10   11 ar
    10   11   12 ar
    11    7   12 ar
    12   12   13 1
    13   10   14 1
    14    5    6 1
    15    5   13 2
    16    1   15 1
    17    1   16 1
    18    3   17 1
    19    3   18 1
    20    4   19 1
    21    6   20 1
    22    8   21 1
    23    9   22 1
    24   11   23 1
